Version 4
SHEET 1 1604 680
WIRE 368 -160 336 -160
WIRE 512 -160 368 -160
WIRE 672 -160 512 -160
WIRE 720 -160 672 -160
WIRE 960 -160 720 -160
WIRE 368 -112 368 -160
WIRE 672 -112 672 -160
WIRE 464 -96 416 -96
WIRE 624 -96 464 -96
WIRE 336 -64 336 -160
WIRE 368 -64 336 -64
WIRE 720 -64 720 -160
WIRE 720 -64 672 -64
WIRE 48 -32 48 -48
WIRE 208 -32 208 -48
WIRE 960 0 960 -160
WIRE 992 0 960 0
WIRE 960 32 960 0
WIRE 128 48 48 48
WIRE 208 48 128 48
WIRE 368 48 368 -16
WIRE 464 48 464 -96
WIRE 464 48 368 48
WIRE 672 48 672 -16
WIRE 768 48 672 48
WIRE 832 48 768 48
WIRE 912 48 832 48
WIRE 128 64 128 48
WIRE 832 80 832 48
WIRE 992 80 992 0
WIRE 992 80 960 80
WIRE 368 96 368 48
WIRE 672 96 672 48
WIRE 512 144 368 144
WIRE 672 144 512 144
WIRE 128 160 128 144
WIRE 320 176 288 176
WIRE 736 176 720 176
WIRE 832 176 832 144
WIRE 960 176 960 128
WIRE 960 176 912 176
WIRE 1104 176 960 176
WIRE 1152 176 1104 176
WIRE 1104 208 1104 176
WIRE 368 256 368 192
WIRE 512 256 368 256
WIRE 672 256 672 192
WIRE 672 256 512 256
WIRE 512 304 512 256
WIRE 960 304 960 176
WIRE 32 320 32 288
WIRE 144 320 144 288
WIRE 1104 336 1104 272
WIRE 560 352 512 352
WIRE 1008 352 960 352
WIRE 464 384 432 384
WIRE 912 384 464 384
WIRE 32 416 32 400
WIRE 512 416 512 400
WIRE 560 416 560 352
WIRE 560 416 512 416
WIRE 144 432 144 400
WIRE 960 432 960 400
WIRE 1008 432 1008 352
WIRE 1008 432 960 432
WIRE 256 464 256 400
WIRE 512 464 512 416
WIRE 960 496 960 432
FLAG 256 464 0
FLAG 256 400 Vss
FLAG 32 416 Vss
FLAG 128 160 Vss
FLAG 32 288 Vdd
FLAG 736 176 Vin2
FLAG 288 176 Vin1
FLAG 512 -160 Vdd
FLAG 512 144 Vss
FLAG 48 -48 Vin1
FLAG 208 -48 Vin2
FLAG 144 288 Vb
FLAG 144 432 Vss
FLAG 768 48 Vout1
FLAG 432 384 Vb
FLAG 512 464 Vss
FLAG 1152 176 Vout2
FLAG 960 496 Vss
FLAG 1104 336 Vss
SYMBOL nmos4 720 96 M0
WINDOW 0 64 61 Left 2
WINDOW 3 60 82 Left 2
WINDOW 123 -29 138 Left 2
SYMATTR InstName M1
SYMATTR Value nch
SYMATTR Value2 l=0.36u w=3.6u
SYMBOL voltage 32 304 R0
WINDOW 123 0 0 Left 0
WINDOW 39 0 0 Left 0
SYMATTR InstName Vdd
SYMATTR Value 1.8
SYMBOL voltage 128 48 R0
WINDOW 3 37 51 Left 2
WINDOW 123 35 71 Left 2
WINDOW 39 0 0 Left 0
WINDOW 0 34 24 Left 2
SYMATTR Value 1.19
SYMATTR Value2 AC 1
SYMATTR InstName Vcm
SYMBOL pmos4 624 -16 M180
WINDOW 123 -55 -12 Left 2
WINDOW 0 52 34 Left 2
SYMATTR Value2 l=0.36u w=3.78u
SYMATTR InstName M4
SYMATTR Value pch
SYMBOL nmos4 320 96 R0
WINDOW 0 52 33 Left 2
WINDOW 3 50 65 Left 2
WINDOW 123 -45 123 Left 2
SYMATTR InstName M2
SYMATTR Value nch
SYMATTR Value2 l=0.36u w=3.6u
SYMBOL voltage 48 -48 R0
WINDOW 0 15 11 Left 2
WINDOW 3 -42 -52 VRight 2
WINDOW 123 34 33 Left 2
WINDOW 39 0 0 Left 0
SYMATTR InstName Vin1
SYMATTR Value SINE(0 10u 1k)
SYMATTR Value2 AC 1
SYMBOL voltage 208 64 M180
WINDOW 0 -57 100 Left 2
WINDOW 3 45 153 VLeft 2
WINDOW 123 -63 56 Left 2
WINDOW 39 0 0 Left 0
SYMATTR InstName Vin2
SYMATTR Value SINE(0 10u 1k)
SYMATTR Value2 AC 1
SYMBOL voltage 144 304 R0
WINDOW 123 0 0 Left 0
WINDOW 39 0 0 Left 0
SYMATTR InstName vgs
SYMATTR Value 0.7629
SYMBOL pmos4 416 -16 R180
WINDOW 123 -120 -1 Left 2
WINDOW 0 52 34 Left 2
SYMATTR Value2 l=0.36u w=3.78u
SYMATTR InstName M3
SYMATTR Value pch
SYMBOL nmos4 464 304 R0
WINDOW 0 52 33 Left 2
WINDOW 3 50 65 Left 2
WINDOW 123 -45 123 Left 2
SYMATTR InstName M5
SYMATTR Value nch
SYMATTR Value2 l=0.36u w=2.34u
SYMBOL pmos4 912 128 M180
WINDOW 123 55 9 Left 2
WINDOW 0 52 34 Left 2
WINDOW 3 36 67 Left 2
SYMATTR Value2 l=0.36u w=52.02u
SYMATTR InstName M6
SYMATTR Value pch
SYMBOL nmos4 912 304 R0
WINDOW 0 52 33 Left 2
WINDOW 3 50 65 Left 2
WINDOW 123 60 143 Left 2
SYMATTR InstName M7
SYMATTR Value nch
SYMATTR Value2 l=0.36u w=15.84u
SYMBOL cap 1088 208 R0
SYMATTR InstName CL
SYMATTR Value 20f
SYMBOL res 928 160 R90
WINDOW 0 0 56 VBottom 2
WINDOW 3 32 56 VTop 2
SYMATTR InstName Rz
SYMATTR Value 12k
SYMBOL cap 816 80 R0
WINDOW 3 44 32 Left 2
SYMATTR Value 10f
SYMATTR InstName Cc
TEXT 40 -232 Left 2 !.include C:\\Users\\ASUS\\Desktop\\CMOS180.txt
TEXT 104 -112 Left 2 !.op
TEXT 88 -208 Left 2 !;tf V(Vout2) Vin1,Vin2
TEXT 80 -176 Left 2 !;ac dec 10 10k 10gig
TEXT 88 -144 Left 2 !.tran 5m
TEXT 1304 -184 Left 2 ;V(vout2)/( V(vin2)- V(vin1))
TEXT 1376 -152 Left 2 ;Av1=39.802\nAv2=28.61\nAv=1139\nRout1=97.259k\nRout2=9.688k\nGBW=1.02G\nDc gain=61.13dB\nPM=45 deg\nGM=16.5dB\nBW=1.12Meg
